/*--------------------------------*- C++ -*----------------------------------*\
  =========                 |
  \\      /  F ield         | OpenFOAM: The Open Source CFD Toolbox
   \\    /   O peration     | Website:  https://openfoam.org
    \\  /    A nd           | Version:  8
     \\/     M anipulation  |
\*---------------------------------------------------------------------------*/
FoamFile
{
    version     2.0;
    format      ascii;
    class       polyBoundaryMesh;
    location    "constant/polyMesh";
    object      boundary;
}
// * * * * * * * * * * * * * * * * * * * * * * * * * * * * * * * * * * * * * //

4
(
    floor
    {
        type            wall;
        inGroups        List<word> 1(wall);
        nFaces          64;
        startFace       8064;
    }
    ceiling
    {
        type            wall;
        inGroups        List<word> 1(wall);
        nFaces          64;
        startFace       8128;
    }
    sideWalls
    {
        type            wall;
        inGroups        List<word> 1(wall);
        nFaces          128;
        startFace       8192;
    }
    frontAndBack
    {
        type            empty;
        inGroups        List<word> 1(empty);
        nFaces          8192;
        startFace       8320;
    }
)

// ************************************************************************* //
